output/1_3PAS_1/Cargas_BT_DU04_1_3PAS_1.dss
New "Load.BT_2832903_75_M1" bus1="UC2832903.1.2.3.4" phases=3 conn=Delta model=2 kv=0.38 kw = 0.1709566 pf=0.92 status=variable vmaxpu=1.5 vminpu=0.92 daily="RU6_DU" 
New "Load.BT_2832903_75_M2" bus1="UC2832903.1.2.3.4" phases=3 conn=Delta model=3 kv=0.38 kw = 0.1709566 pf=0.92 status=variable vmaxpu=1.5 vminpu=0.92 daily="RU6_DU"
 
New "Load.BT_2832902_111_M1" bus1="UC2832902.2.4" phases=1 conn=Delta model=2 kv=0.22 kw = 0.1790198 pf=0.92 status=variable vmaxpu=1.5 vminpu=0.92 daily="RU8_DU" 
New "Load.BT_2832902_111_M2" bus1="UC2832902.2.4" phases=1 conn=Delta model=3 kv=0.22 kw = 0.1790198 pf=0.92 status=variable vmaxpu=1.5 vminpu=0.92 daily="RU8_DU"
 
New "Load.BT_2832901_517_M1" bus1="UC2832901.1.4" phases=1 conn=Delta model=2 kv=0.22 kw = 0.0010622 pf=0.92 status=variable vmaxpu=1.5 vminpu=0.92 daily="CO6_DU" 
New "Load.BT_2832901_517_M2" bus1="UC2832901.1.4" phases=1 conn=Delta model=3 kv=0.22 kw = 0.0010622 pf=0.92 status=variable vmaxpu=1.5 vminpu=0.92 daily="CO6_DU"
 
New "Load.BT_2832709_519_M1" bus1="UC2832709.1.4" phases=1 conn=Delta model=2 kv=0.22 kw = 0.0595481 pf=0.92 status=variable vmaxpu=1.5 vminpu=0.92 daily="RU7_DU" 
New "Load.BT_2832709_519_M2" bus1="UC2832709.1.4" phases=1 conn=Delta model=3 kv=0.22 kw = 0.0595481 pf=0.92 status=variable vmaxpu=1.5 vminpu=0.92 daily="RU7_DU"
 
New "Load.BT_2832708_561_M1" bus1="UC2832708.2.4" phases=1 conn=Delta model=2 kv=0.22 kw = 0.0000000 pf=0.92 status=variable vmaxpu=1.5 vminpu=0.92 daily="CO6_DU" 
New "Load.BT_2832708_561_M2" bus1="UC2832708.2.4" phases=1 conn=Delta model=3 kv=0.22 kw = 0.0000000 pf=0.92 status=variable vmaxpu=1.5 vminpu=0.92 daily="CO6_DU"
 
New "Load.BT_2832707_609_M1" bus1="UC2832707.1.4" phases=1 conn=Delta model=2 kv=0.22 kw = 0.1841333 pf=0.92 status=variable vmaxpu=1.5 vminpu=0.92 daily="RU3_DU" 
New "Load.BT_2832707_609_M2" bus1="UC2832707.1.4" phases=1 conn=Delta model=3 kv=0.22 kw = 0.1841333 pf=0.92 status=variable vmaxpu=1.5 vminpu=0.92 daily="RU3_DU"
 
New "Load.BT_2832706_630_M1" bus1="UC2832706.1.4" phases=1 conn=Delta model=2 kv=0.22 kw = 0.0825425 pf=0.92 status=variable vmaxpu=1.5 vminpu=0.92 daily="RU3_DU" 
New "Load.BT_2832706_630_M2" bus1="UC2832706.1.4" phases=1 conn=Delta model=3 kv=0.22 kw = 0.0825425 pf=0.92 status=variable vmaxpu=1.5 vminpu=0.92 daily="RU3_DU"
 
New "Load.BT_2832705_702_M1" bus1="UC2832705.1.4" phases=1 conn=Delta model=2 kv=0.22 kw = 0.2040886 pf=0.92 status=variable vmaxpu=1.5 vminpu=0.92 daily="RU3_DU" 
New "Load.BT_2832705_702_M2" bus1="UC2832705.1.4" phases=1 conn=Delta model=3 kv=0.22 kw = 0.2040886 pf=0.92 status=variable vmaxpu=1.5 vminpu=0.92 daily="RU3_DU"
 
New "Load.BT_2832704_713_M1" bus1="UC2832704.1.4" phases=1 conn=Delta model=2 kv=0.22 kw = 0.0304522 pf=0.92 status=variable vmaxpu=1.5 vminpu=0.92 daily="RU5_DU" 
New "Load.BT_2832704_713_M2" bus1="UC2832704.1.4" phases=1 conn=Delta model=3 kv=0.22 kw = 0.0304522 pf=0.92 status=variable vmaxpu=1.5 vminpu=0.92 daily="RU5_DU"
 
New "Load.BT_2832703_725_M1" bus1="UC2832703.1.4" phases=1 conn=Delta model=2 kv=0.22 kw = 0.1808026 pf=0.92 status=variable vmaxpu=1.5 vminpu=0.92 daily="RE6_DU" 
New "Load.BT_2832703_725_M2" bus1="UC2832703.1.4" phases=1 conn=Delta model=3 kv=0.22 kw = 0.1808026 pf=0.92 status=variable vmaxpu=1.5 vminpu=0.92 daily="RE6_DU"
 
New "Load.BT_2832702_740_M1" bus1="UC2832702.2.4" phases=1 conn=Delta model=2 kv=0.22 kw = 0.3275875 pf=0.92 status=variable vmaxpu=1.5 vminpu=0.92 daily="RU2_DU" 
New "Load.BT_2832702_740_M2" bus1="UC2832702.2.4" phases=1 conn=Delta model=3 kv=0.22 kw = 0.3275875 pf=0.92 status=variable vmaxpu=1.5 vminpu=0.92 daily="RU2_DU"
 
New "Load.BT_2831810_760_M1" bus1="UC2831810.1.4" phases=1 conn=Delta model=2 kv=0.22 kw = 0.1814442 pf=0.92 status=variable vmaxpu=1.5 vminpu=0.92 daily="RU5_DU" 
New "Load.BT_2831810_760_M2" bus1="UC2831810.1.4" phases=1 conn=Delta model=3 kv=0.22 kw = 0.1814442 pf=0.92 status=variable vmaxpu=1.5 vminpu=0.92 daily="RU5_DU"
 
New "Load.BT_2831808_800_M1" bus1="UC2831808.1.4" phases=1 conn=Delta model=2 kv=0.22 kw = 0.2079751 pf=0.92 status=variable vmaxpu=1.5 vminpu=0.92 daily="RE5_DU" 
New "Load.BT_2831808_800_M2" bus1="UC2831808.1.4" phases=1 conn=Delta model=3 kv=0.22 kw = 0.2079751 pf=0.92 status=variable vmaxpu=1.5 vminpu=0.92 daily="RE5_DU"
 
New "Load.BT_2831809_804_M1" bus1="UC2831809.1.2.3.4" phases=3 conn=Delta model=2 kv=0.38 kw = 1.5474198 pf=0.92 status=variable vmaxpu=1.5 vminpu=0.92 daily="RU2_DU" 
New "Load.BT_2831809_804_M2" bus1="UC2831809.1.2.3.4" phases=3 conn=Delta model=3 kv=0.38 kw = 1.5474198 pf=0.92 status=variable vmaxpu=1.5 vminpu=0.92 daily="RU2_DU"
 
New "Load.BT_2831807_839_M1" bus1="UC2831807.1.4" phases=1 conn=Delta model=2 kv=0.22 kw = 0.4547431 pf=0.92 status=variable vmaxpu=1.5 vminpu=0.92 daily="RU2_DU" 
New "Load.BT_2831807_839_M2" bus1="UC2831807.1.4" phases=1 conn=Delta model=3 kv=0.22 kw = 0.4547431 pf=0.92 status=variable vmaxpu=1.5 vminpu=0.92 daily="RU2_DU"
 
New "Load.BT_2831806_857_M1" bus1="UC2831806.2.4" phases=1 conn=Delta model=2 kv=0.22 kw = 0.3535671 pf=0.92 status=variable vmaxpu=1.5 vminpu=0.92 daily="RU7_DU" 
New "Load.BT_2831806_857_M2" bus1="UC2831806.2.4" phases=1 conn=Delta model=3 kv=0.22 kw = 0.3535671 pf=0.92 status=variable vmaxpu=1.5 vminpu=0.92 daily="RU7_DU"
 
New "Load.BT_2831805_1102_M1" bus1="UC2831805.1.4" phases=1 conn=Delta model=2 kv=0.22 kw = 0.1977880 pf=0.92 status=variable vmaxpu=1.5 vminpu=0.92 daily="RU8_DU" 
New "Load.BT_2831805_1102_M2" bus1="UC2831805.1.4" phases=1 conn=Delta model=3 kv=0.22 kw = 0.1977880 pf=0.92 status=variable vmaxpu=1.5 vminpu=0.92 daily="RU8_DU"
 
New "Load.BT_2831804_1170_M1" bus1="UC2831804.1.4" phases=1 conn=Delta model=2 kv=0.22 kw = 0.2423485 pf=0.92 status=variable vmaxpu=1.5 vminpu=0.92 daily="RU5_DU" 
New "Load.BT_2831804_1170_M2" bus1="UC2831804.1.4" phases=1 conn=Delta model=3 kv=0.22 kw = 0.2423485 pf=0.92 status=variable vmaxpu=1.5 vminpu=0.92 daily="RU5_DU"
 
New "Load.BT_2831803_1237_M1" bus1="UC2831803.2.4" phases=1 conn=Delta model=2 kv=0.22 kw = 0.2112077 pf=0.92 status=variable vmaxpu=1.5 vminpu=0.92 daily="RU2_DU" 
New "Load.BT_2831803_1237_M2" bus1="UC2831803.2.4" phases=1 conn=Delta model=3 kv=0.22 kw = 0.2112077 pf=0.92 status=variable vmaxpu=1.5 vminpu=0.92 daily="RU2_DU"
 
New "Load.BT_2831931_1259_M1" bus1="UC2831931.1.4" phases=1 conn=Delta model=2 kv=0.22 kw = 0.2068098 pf=0.92 status=variable vmaxpu=1.5 vminpu=0.92 daily="RU3_DU" 
New "Load.BT_2831931_1259_M2" bus1="UC2831931.1.4" phases=1 conn=Delta model=3 kv=0.22 kw = 0.2068098 pf=0.92 status=variable vmaxpu=1.5 vminpu=0.92 daily="RU3_DU"
 
New "Load.BT_2831802_1260_M1" bus1="UC2831802.1.2.4" phases=1 conn=Delta model=2 kv=0.44 kw = 0.4907735 pf=0.92 status=variable vmaxpu=1.5 vminpu=0.92 daily="RU6_DU" 
New "Load.BT_2831802_1260_M2" bus1="UC2831802.1.2.4" phases=1 conn=Delta model=3 kv=0.44 kw = 0.4907735 pf=0.92 status=variable vmaxpu=1.5 vminpu=0.92 daily="RU6_DU"
 
New "Load.BT_2831494_1546_M1" bus1="UC2831494.1.4" phases=1 conn=Delta model=2 kv=0.22 kw = 0.1729523 pf=0.92 status=variable vmaxpu=1.5 vminpu=0.92 daily="RE4_DU" 
New "Load.BT_2831494_1546_M2" bus1="UC2831494.1.4" phases=1 conn=Delta model=3 kv=0.22 kw = 0.1729523 pf=0.92 status=variable vmaxpu=1.5 vminpu=0.92 daily="RE4_DU"
 
New "Load.BT_2831492_1606_M1" bus1="UC2831492.2.4" phases=1 conn=Delta model=2 kv=0.22 kw = 0.2669450 pf=0.92 status=variable vmaxpu=1.5 vminpu=0.92 daily="RE1_DU" 
New "Load.BT_2831492_1606_M2" bus1="UC2831492.2.4" phases=1 conn=Delta model=3 kv=0.22 kw = 0.2669450 pf=0.92 status=variable vmaxpu=1.5 vminpu=0.92 daily="RE1_DU"
 
New "Load.BT_2831488_1693_M1" bus1="UC2831488.1.4" phases=1 conn=Delta model=2 kv=0.22 kw = 0.6623347 pf=0.92 status=variable vmaxpu=1.5 vminpu=0.92 daily="RU5_DU" 
New "Load.BT_2831488_1693_M2" bus1="UC2831488.1.4" phases=1 conn=Delta model=3 kv=0.22 kw = 0.6623347 pf=0.92 status=variable vmaxpu=1.5 vminpu=0.92 daily="RU5_DU"
 
New "Load.BT_2831489_1697_M1" bus1="UC2831489.1.4" phases=1 conn=Delta model=2 kv=0.22 kw = 0.0144371 pf=0.92 status=variable vmaxpu=1.5 vminpu=0.92 daily="RU8_DU" 
New "Load.BT_2831489_1697_M2" bus1="UC2831489.1.4" phases=1 conn=Delta model=3 kv=0.22 kw = 0.0144371 pf=0.92 status=variable vmaxpu=1.5 vminpu=0.92 daily="RU8_DU"
 
New "Load.BT_2831487_1726_M1" bus1="UC2831487.3.4" phases=1 conn=Delta model=2 kv=0.22 kw = 0.1635933 pf=0.92 status=variable vmaxpu=1.5 vminpu=0.92 daily="RE3_DU" 
New "Load.BT_2831487_1726_M2" bus1="UC2831487.3.4" phases=1 conn=Delta model=3 kv=0.22 kw = 0.1635933 pf=0.92 status=variable vmaxpu=1.5 vminpu=0.92 daily="RE3_DU"
 
New "Load.BT_2831486_1765_M1" bus1="UC2831486.1.4" phases=1 conn=Delta model=2 kv=0.22 kw = 0.2022156 pf=0.92 status=variable vmaxpu=1.5 vminpu=0.92 daily="RU7_DU" 
New "Load.BT_2831486_1765_M2" bus1="UC2831486.1.4" phases=1 conn=Delta model=3 kv=0.22 kw = 0.2022156 pf=0.92 status=variable vmaxpu=1.5 vminpu=0.92 daily="RU7_DU"
 
New "Load.BT_2831193_1771_M1" bus1="UC2831193.1.4" phases=1 conn=Delta model=2 kv=0.22 kw = 0.1017944 pf=0.92 status=variable vmaxpu=1.5 vminpu=0.92 daily="RE2_DU" 
New "Load.BT_2831193_1771_M2" bus1="UC2831193.1.4" phases=1 conn=Delta model=3 kv=0.22 kw = 0.1017944 pf=0.92 status=variable vmaxpu=1.5 vminpu=0.92 daily="RE2_DU"
 
New "Load.BT_2831191_1918_M1" bus1="UC2831191.2.4" phases=1 conn=Delta model=2 kv=0.22 kw = 0.0000000 pf=0.92 status=variable vmaxpu=1.5 vminpu=0.92 daily="CO7_DU" 
New "Load.BT_2831191_1918_M2" bus1="UC2831191.2.4" phases=1 conn=Delta model=3 kv=0.22 kw = 0.0000000 pf=0.92 status=variable vmaxpu=1.5 vminpu=0.92 daily="CO7_DU"
 
New "Load.BT_2830110_2284_M1" bus1="UC2830110.1.4" phases=1 conn=Delta model=2 kv=0.22 kw = 0.1381287 pf=0.92 status=variable vmaxpu=1.5 vminpu=0.92 daily="RE6_DU" 
New "Load.BT_2830110_2284_M2" bus1="UC2830110.1.4" phases=1 conn=Delta model=3 kv=0.22 kw = 0.1381287 pf=0.92 status=variable vmaxpu=1.5 vminpu=0.92 daily="RE6_DU"
 
New "Load.BT_2830109_2314_M1" bus1="UC2830109.2.4" phases=1 conn=Delta model=2 kv=0.22 kw = 0.2365756 pf=0.92 status=variable vmaxpu=1.5 vminpu=0.92 daily="RE7_DU" 
New "Load.BT_2830109_2314_M2" bus1="UC2830109.2.4" phases=1 conn=Delta model=3 kv=0.22 kw = 0.2365756 pf=0.92 status=variable vmaxpu=1.5 vminpu=0.92 daily="RE7_DU"
 
New "Load.BT_2830107_2326_M1" bus1="UC2830107.2.4" phases=1 conn=Delta model=2 kv=0.22 kw = 0.5560366 pf=0.92 status=variable vmaxpu=1.5 vminpu=0.92 daily="RU2_DU" 
New "Load.BT_2830107_2326_M2" bus1="UC2830107.2.4" phases=1 conn=Delta model=3 kv=0.22 kw = 0.5560366 pf=0.92 status=variable vmaxpu=1.5 vminpu=0.92 daily="RU2_DU"
 
New "Load.BT_2830108_2327_M1" bus1="UC2830108.1.4" phases=1 conn=Delta model=2 kv=0.22 kw = 0.1405944 pf=0.92 status=variable vmaxpu=1.5 vminpu=0.92 daily="RU3_DU" 
New "Load.BT_2830108_2327_M2" bus1="UC2830108.1.4" phases=1 conn=Delta model=3 kv=0.22 kw = 0.1405944 pf=0.92 status=variable vmaxpu=1.5 vminpu=0.92 daily="RU3_DU"
 
New "Load.BT_2830106_2504_M1" bus1="UC2830106.1.4" phases=1 conn=Delta model=2 kv=0.22 kw = 0.0888919 pf=0.92 status=variable vmaxpu=1.5 vminpu=0.92 daily="RU3_DU" 
New "Load.BT_2830106_2504_M2" bus1="UC2830106.1.4" phases=1 conn=Delta model=3 kv=0.22 kw = 0.0888919 pf=0.92 status=variable vmaxpu=1.5 vminpu=0.92 daily="RU3_DU"
 
New "Load.BT_2830105_2580_M1" bus1="UC2830105.1.4" phases=1 conn=Delta model=2 kv=0.22 kw = 0.4662291 pf=0.92 status=variable vmaxpu=1.5 vminpu=0.92 daily="RU3_DU" 
New "Load.BT_2830105_2580_M2" bus1="UC2830105.1.4" phases=1 conn=Delta model=3 kv=0.22 kw = 0.4662291 pf=0.92 status=variable vmaxpu=1.5 vminpu=0.92 daily="RU3_DU"
 
New "Load.BT_2830104_2723_M1" bus1="UC2830104.1.4" phases=1 conn=Delta model=2 kv=0.22 kw = 0.0000000 pf=0.92 status=variable vmaxpu=1.5 vminpu=0.92 daily="RU1_DU" 
New "Load.BT_2830104_2723_M2" bus1="UC2830104.1.4" phases=1 conn=Delta model=3 kv=0.22 kw = 0.0000000 pf=0.92 status=variable vmaxpu=1.5 vminpu=0.92 daily="RU1_DU"
 
New "Load.BT_2830103_2803_M1" bus1="UC2830103.1.4" phases=1 conn=Delta model=2 kv=0.22 kw = 0.2532191 pf=0.92 status=variable vmaxpu=1.5 vminpu=0.92 daily="RE7_DU" 
New "Load.BT_2830103_2803_M2" bus1="UC2830103.1.4" phases=1 conn=Delta model=3 kv=0.22 kw = 0.2532191 pf=0.92 status=variable vmaxpu=1.5 vminpu=0.92 daily="RE7_DU"
 
New "Load.BT_2830101_3042_M1" bus1="UC2830101.2.4" phases=1 conn=Delta model=2 kv=0.22 kw = 0.1928637 pf=0.92 status=variable vmaxpu=1.5 vminpu=0.92 daily="RU5_DU" 
New "Load.BT_2830101_3042_M2" bus1="UC2830101.2.4" phases=1 conn=Delta model=3 kv=0.22 kw = 0.1928637 pf=0.92 status=variable vmaxpu=1.5 vminpu=0.92 daily="RU5_DU"
 
New "Load.BT_2828520_3114_M1" bus1="UC2828520.2.4" phases=1 conn=Delta model=2 kv=0.22 kw = 0.2513564 pf=0.92 status=variable vmaxpu=1.5 vminpu=0.92 daily="RE5_DU" 
New "Load.BT_2828520_3114_M2" bus1="UC2828520.2.4" phases=1 conn=Delta model=3 kv=0.22 kw = 0.2513564 pf=0.92 status=variable vmaxpu=1.5 vminpu=0.92 daily="RE5_DU"
 
New "Load.BT_2828516_3235_M1" bus1="UC2828516.1.2.3.4" phases=3 conn=Delta model=2 kv=0.38 kw = 0.7642272 pf=0.92 status=variable vmaxpu=1.5 vminpu=0.92 daily="IN5_DU" 
New "Load.BT_2828516_3235_M2" bus1="UC2828516.1.2.3.4" phases=3 conn=Delta model=3 kv=0.38 kw = 0.7642272 pf=0.92 status=variable vmaxpu=1.5 vminpu=0.92 daily="IN5_DU"
 
New "Load.BT_2828513_3350_M1" bus1="UC2828513.1.4" phases=1 conn=Delta model=2 kv=0.22 kw = 0.0714644 pf=0.92 status=variable vmaxpu=1.5 vminpu=0.92 daily="RE3_DU" 
New "Load.BT_2828513_3350_M2" bus1="UC2828513.1.4" phases=1 conn=Delta model=3 kv=0.22 kw = 0.0714644 pf=0.92 status=variable vmaxpu=1.5 vminpu=0.92 daily="RE3_DU"
 
New "Load.BT_2828518_3371_M1" bus1="UC2828518.1.4" phases=1 conn=Delta model=2 kv=0.22 kw = 0.0655034 pf=0.92 status=variable vmaxpu=1.5 vminpu=0.92 daily="RU4_DU" 
New "Load.BT_2828518_3371_M2" bus1="UC2828518.1.4" phases=1 conn=Delta model=3 kv=0.22 kw = 0.0655034 pf=0.92 status=variable vmaxpu=1.5 vminpu=0.92 daily="RU4_DU"
 
New "Load.BT_2830102_3481_M1" bus1="UC2830102.1.4" phases=1 conn=Delta model=2 kv=0.22 kw = 0.1387803 pf=0.92 status=variable vmaxpu=1.5 vminpu=0.92 daily="RU3_DU" 
New "Load.BT_2830102_3481_M2" bus1="UC2830102.1.4" phases=1 conn=Delta model=3 kv=0.22 kw = 0.1387803 pf=0.92 status=variable vmaxpu=1.5 vminpu=0.92 daily="RU3_DU"
 
New "Load.BT_2828509_3595_M1" bus1="UC2828509.1.4" phases=1 conn=Delta model=2 kv=0.22 kw = 0.2298916 pf=0.92 status=variable vmaxpu=1.5 vminpu=0.92 daily="RE3_DU" 
New "Load.BT_2828509_3595_M2" bus1="UC2828509.1.4" phases=1 conn=Delta model=3 kv=0.22 kw = 0.2298916 pf=0.92 status=variable vmaxpu=1.5 vminpu=0.92 daily="RE3_DU"
 
New "Load.BT_2828387_3688_M1" bus1="UC2828387.2.4" phases=1 conn=Delta model=2 kv=0.22 kw = 0.1387803 pf=0.92 status=variable vmaxpu=1.5 vminpu=0.92 daily="RU3_DU" 
New "Load.BT_2828387_3688_M2" bus1="UC2828387.2.4" phases=1 conn=Delta model=3 kv=0.22 kw = 0.1387803 pf=0.92 status=variable vmaxpu=1.5 vminpu=0.92 daily="RU3_DU"
 
New "Load.BT_2828385_3783_M1" bus1="UC2828385.3.4" phases=1 conn=Delta model=2 kv=0.22 kw = 0.0900939 pf=0.92 status=variable vmaxpu=1.5 vminpu=0.92 daily="RE2_DU" 
New "Load.BT_2828385_3783_M2" bus1="UC2828385.3.4" phases=1 conn=Delta model=3 kv=0.22 kw = 0.0900939 pf=0.92 status=variable vmaxpu=1.5 vminpu=0.92 daily="RE2_DU"
 
New "Load.BT_2828384_3808_M1" bus1="UC2828384.1.2.3.4" phases=3 conn=Delta model=2 kv=0.38 kw = 0.0582150 pf=0.92 status=variable vmaxpu=1.5 vminpu=0.92 daily="CO5_DU" 
New "Load.BT_2828384_3808_M2" bus1="UC2828384.1.2.3.4" phases=3 conn=Delta model=3 kv=0.38 kw = 0.0582150 pf=0.92 status=variable vmaxpu=1.5 vminpu=0.92 daily="CO5_DU"
 
New "Load.BT_2828399_4171_M1" bus1="UC2828399.1.2.4" phases=1 conn=Delta model=2 kv=0.44 kw = 0.8666180 pf=0.92 status=variable vmaxpu=1.5 vminpu=0.92 daily="RU5_DU" 
New "Load.BT_2828399_4171_M2" bus1="UC2828399.1.2.4" phases=1 conn=Delta model=3 kv=0.44 kw = 0.8666180 pf=0.92 status=variable vmaxpu=1.5 vminpu=0.92 daily="RU5_DU"
 
New "Load.BT_2828396_4226_M1" bus1="UC2828396.1.4" phases=1 conn=Delta model=2 kv=0.22 kw = 0.1587356 pf=0.92 status=variable vmaxpu=1.5 vminpu=0.92 daily="RU3_DU" 
New "Load.BT_2828396_4226_M2" bus1="UC2828396.1.4" phases=1 conn=Delta model=3 kv=0.22 kw = 0.1587356 pf=0.92 status=variable vmaxpu=1.5 vminpu=0.92 daily="RU3_DU"
 
New "Load.BT_2828517_4253_M1" bus1="UC2828517.1.4" phases=1 conn=Delta model=2 kv=0.22 kw = 0.0362824 pf=0.92 status=variable vmaxpu=1.5 vminpu=0.92 daily="RU3_DU" 
New "Load.BT_2828517_4253_M2" bus1="UC2828517.1.4" phases=1 conn=Delta model=3 kv=0.22 kw = 0.0362824 pf=0.92 status=variable vmaxpu=1.5 vminpu=0.92 daily="RU3_DU"
 
New "Load.BT_2827943_4541_M1" bus1="UC2827943.2.4" phases=1 conn=Delta model=2 kv=0.22 kw = 0.0055963 pf=0.92 status=variable vmaxpu=1.5 vminpu=0.92 daily="CO7_DU" 
New "Load.BT_2827943_4541_M2" bus1="UC2827943.2.4" phases=1 conn=Delta model=3 kv=0.22 kw = 0.0055963 pf=0.92 status=variable vmaxpu=1.5 vminpu=0.92 daily="CO7_DU"
 
New "Load.BT_2827935_4579_M1" bus1="UC2827935.1.4" phases=1 conn=Delta model=2 kv=0.22 kw = 0.2428666 pf=0.92 status=variable vmaxpu=1.5 vminpu=0.92 daily="RU4_DU" 
New "Load.BT_2827935_4579_M2" bus1="UC2827935.1.4" phases=1 conn=Delta model=3 kv=0.22 kw = 0.2428666 pf=0.92 status=variable vmaxpu=1.5 vminpu=0.92 daily="RU4_DU"
 
New "Load.BT_2827090_4587_M1" bus1="UC2827090.2.4" phases=1 conn=Delta model=2 kv=0.22 kw = 0.2287212 pf=0.92 status=variable vmaxpu=1.5 vminpu=0.92 daily="RU1_DU" 
New "Load.BT_2827090_4587_M2" bus1="UC2827090.2.4" phases=1 conn=Delta model=3 kv=0.22 kw = 0.2287212 pf=0.92 status=variable vmaxpu=1.5 vminpu=0.92 daily="RU1_DU"
 
New "Load.BT_2827097_4633_M1" bus1="UC2827097.2.4" phases=1 conn=Delta model=2 kv=0.22 kw = 0.0000000 pf=0.92 status=variable vmaxpu=1.5 vminpu=0.92 daily="RU2_DU" 
New "Load.BT_2827097_4633_M2" bus1="UC2827097.2.4" phases=1 conn=Delta model=3 kv=0.22 kw = 0.0000000 pf=0.92 status=variable vmaxpu=1.5 vminpu=0.92 daily="RU2_DU"
 
New "Load.BT_2827095_4823_M1" bus1="UC2827095.1.4" phases=1 conn=Delta model=2 kv=0.22 kw = 0.1712935 pf=0.92 status=variable vmaxpu=1.5 vminpu=0.92 daily="RU5_DU" 
New "Load.BT_2827095_4823_M2" bus1="UC2827095.1.4" phases=1 conn=Delta model=3 kv=0.22 kw = 0.1712935 pf=0.92 status=variable vmaxpu=1.5 vminpu=0.92 daily="RU5_DU"
 
New "Load.BT_2827086_4873_M1" bus1="UC2827086.1.4" phases=1 conn=Delta model=2 kv=0.22 kw = 0.1342649 pf=0.92 status=variable vmaxpu=1.5 vminpu=0.92 daily="RU8_DU" 
New "Load.BT_2827086_4873_M2" bus1="UC2827086.1.4" phases=1 conn=Delta model=3 kv=0.22 kw = 0.1342649 pf=0.92 status=variable vmaxpu=1.5 vminpu=0.92 daily="RU8_DU"
 
New "Load.BT_2827093_4874_M1" bus1="UC2827093.1.4" phases=1 conn=Delta model=2 kv=0.22 kw = 0.1160933 pf=0.92 status=variable vmaxpu=1.5 vminpu=0.92 daily="RU1_DU" 
New "Load.BT_2827093_4874_M2" bus1="UC2827093.1.4" phases=1 conn=Delta model=3 kv=0.22 kw = 0.1160933 pf=0.92 status=variable vmaxpu=1.5 vminpu=0.92 daily="RU1_DU"
 
New "Load.BT_2826236_4986_M1" bus1="UC2826236.1.4" phases=1 conn=Delta model=2 kv=0.22 kw = 0.1511861 pf=0.92 status=variable vmaxpu=1.5 vminpu=0.92 daily="RU6_DU" 
New "Load.BT_2826236_4986_M2" bus1="UC2826236.1.4" phases=1 conn=Delta model=3 kv=0.22 kw = 0.1511861 pf=0.92 status=variable vmaxpu=1.5 vminpu=0.92 daily="RU6_DU"
 
New "Load.BT_2826239_5009_M1" bus1="UC2826239.1.4" phases=1 conn=Delta model=2 kv=0.22 kw = 0.3383634 pf=0.92 status=variable vmaxpu=1.5 vminpu=0.92 daily="RU2_DU" 
New "Load.BT_2826239_5009_M2" bus1="UC2826239.1.4" phases=1 conn=Delta model=3 kv=0.22 kw = 0.3383634 pf=0.92 status=variable vmaxpu=1.5 vminpu=0.92 daily="RU2_DU"
 
New "Load.BT_2827940_5131_M1" bus1="UC2827940.1.4" phases=1 conn=Delta model=2 kv=0.22 kw = 0.2159090 pf=0.92 status=variable vmaxpu=1.5 vminpu=0.92 daily="RE8_DU" 
New "Load.BT_2827940_5131_M2" bus1="UC2827940.1.4" phases=1 conn=Delta model=3 kv=0.22 kw = 0.2159090 pf=0.92 status=variable vmaxpu=1.5 vminpu=0.92 daily="RE8_DU"
 
New "Load.BT_2826215_5270_M1" bus1="UC2826215.1.4" phases=1 conn=Delta model=2 kv=0.22 kw = 0.2930685 pf=0.92 status=variable vmaxpu=1.5 vminpu=0.92 daily="RU6_DU" 
New "Load.BT_2826215_5270_M2" bus1="UC2826215.1.4" phases=1 conn=Delta model=3 kv=0.22 kw = 0.2930685 pf=0.92 status=variable vmaxpu=1.5 vminpu=0.92 daily="RU6_DU"
 
New "Load.BT_3205284_5293_M1" bus1="UC3205284.1.4" phases=1 conn=Delta model=2 kv=0.22 kw = 0.0037218 pf=0.92 status=variable vmaxpu=1.5 vminpu=0.92 daily="RU7_DU" 
New "Load.BT_3205284_5293_M2" bus1="UC3205284.1.4" phases=1 conn=Delta model=3 kv=0.22 kw = 0.0037218 pf=0.92 status=variable vmaxpu=1.5 vminpu=0.92 daily="RU7_DU"
 
New "Load.BT_3205285_5294_M1" bus1="UC3205285.1.4" phases=1 conn=Delta model=2 kv=0.22 kw = 0.4758152 pf=0.92 status=variable vmaxpu=1.5 vminpu=0.92 daily="RU5_DU" 
New "Load.BT_3205285_5294_M2" bus1="UC3205285.1.4" phases=1 conn=Delta model=3 kv=0.22 kw = 0.4758152 pf=0.92 status=variable vmaxpu=1.5 vminpu=0.92 daily="RU5_DU"
 
New "Load.BT_3205286_5295_M1" bus1="UC3205286.1.4" phases=1 conn=Delta model=2 kv=0.22 kw = 0.0332053 pf=0.92 status=variable vmaxpu=1.5 vminpu=0.92 daily="RU8_DU" 
New "Load.BT_3205286_5295_M2" bus1="UC3205286.1.4" phases=1 conn=Delta model=3 kv=0.22 kw = 0.0332053 pf=0.92 status=variable vmaxpu=1.5 vminpu=0.92 daily="RU8_DU"
 
New "Load.BT_2826225_5452_M1" bus1="UC2826225.1.2.3.4" phases=3 conn=Delta model=2 kv=0.38 kw = 0.2195838 pf=0.92 status=variable vmaxpu=1.5 vminpu=0.92 daily="RU7_DU" 
New "Load.BT_2826225_5452_M2" bus1="UC2826225.1.2.3.4" phases=3 conn=Delta model=3 kv=0.38 kw = 0.2195838 pf=0.92 status=variable vmaxpu=1.5 vminpu=0.92 daily="RU7_DU"
 
New "Load.BT_2805439_5989_M1" bus1="UC2805439.2.4" phases=1 conn=Delta model=2 kv=0.22 kw = 0.3933311 pf=0.92 status=variable vmaxpu=1.5 vminpu=0.92 daily="RU1_DU" 
New "Load.BT_2805439_5989_M2" bus1="UC2805439.2.4" phases=1 conn=Delta model=3 kv=0.22 kw = 0.3933311 pf=0.92 status=variable vmaxpu=1.5 vminpu=0.92 daily="RU1_DU"
 
New "Load.BT_2805440_5990_M1" bus1="UC2805440.2.4" phases=1 conn=Delta model=2 kv=0.22 kw = 0.1844174 pf=0.92 status=variable vmaxpu=1.5 vminpu=0.92 daily="RU4_DU" 
New "Load.BT_2805440_5990_M2" bus1="UC2805440.2.4" phases=1 conn=Delta model=3 kv=0.22 kw = 0.1844174 pf=0.92 status=variable vmaxpu=1.5 vminpu=0.92 daily="RU4_DU"
 
New "Load.BT_2805441_5991_M1" bus1="UC2805441.1.4" phases=1 conn=Delta model=2 kv=0.22 kw = 0.2865754 pf=0.92 status=variable vmaxpu=1.5 vminpu=0.92 daily="RU7_DU" 
New "Load.BT_2805441_5991_M2" bus1="UC2805441.1.4" phases=1 conn=Delta model=3 kv=0.22 kw = 0.2865754 pf=0.92 status=variable vmaxpu=1.5 vminpu=0.92 daily="RU7_DU"
 
New "Load.BT_2805443_5992_M1" bus1="UC2805443.1.4" phases=1 conn=Delta model=2 kv=0.22 kw = 0.1802604 pf=0.92 status=variable vmaxpu=1.5 vminpu=0.92 daily="RU6_DU" 
New "Load.BT_2805443_5992_M2" bus1="UC2805443.1.4" phases=1 conn=Delta model=3 kv=0.22 kw = 0.1802604 pf=0.92 status=variable vmaxpu=1.5 vminpu=0.92 daily="RU6_DU"
 
New "Load.BT_2805444_5993_M1" bus1="UC2805444.1.4" phases=1 conn=Delta model=2 kv=0.22 kw = 0.2751145 pf=0.92 status=variable vmaxpu=1.5 vminpu=0.92 daily="RU4_DU" 
New "Load.BT_2805444_5993_M2" bus1="UC2805444.1.4" phases=1 conn=Delta model=3 kv=0.22 kw = 0.2751145 pf=0.92 status=variable vmaxpu=1.5 vminpu=0.92 daily="RU4_DU"
 
New "Load.BT_2819389_6030_M1" bus1="UC2819389.1.4" phases=1 conn=Delta model=2 kv=0.22 kw = 0.0917048 pf=0.92 status=variable vmaxpu=1.5 vminpu=0.92 daily="RU4_DU" 
New "Load.BT_2819389_6030_M2" bus1="UC2819389.1.4" phases=1 conn=Delta model=3 kv=0.22 kw = 0.0917048 pf=0.92 status=variable vmaxpu=1.5 vminpu=0.92 daily="RU4_DU"
 
New "Load.BT_2819373_6040_M1" bus1="UC2819373.1.4" phases=1 conn=Delta model=2 kv=0.22 kw = 0.2872980 pf=0.92 status=variable vmaxpu=1.5 vminpu=0.92 daily="RU8_DU" 
New "Load.BT_2819373_6040_M2" bus1="UC2819373.1.4" phases=1 conn=Delta model=3 kv=0.22 kw = 0.2872980 pf=0.92 status=variable vmaxpu=1.5 vminpu=0.92 daily="RU8_DU"
 
New "Load.BT_2819376_6042_M1" bus1="UC2819376.1.2.3.4" phases=3 conn=Delta model=2 kv=0.38 kw = 3.4425823 pf=0.92 status=variable vmaxpu=1.5 vminpu=0.92 daily="CO4_DU" 
New "Load.BT_2819376_6042_M2" bus1="UC2819376.1.2.3.4" phases=3 conn=Delta model=3 kv=0.38 kw = 3.4425823 pf=0.92 status=variable vmaxpu=1.5 vminpu=0.92 daily="CO4_DU"
 
New "Load.BT_2819358_6089_M1" bus1="UC2819358.1.4" phases=1 conn=Delta model=2 kv=0.22 kw = 0.0139556 pf=0.92 status=variable vmaxpu=1.5 vminpu=0.92 daily="RU6_DU" 
New "Load.BT_2819358_6089_M2" bus1="UC2819358.1.4" phases=1 conn=Delta model=3 kv=0.22 kw = 0.0139556 pf=0.92 status=variable vmaxpu=1.5 vminpu=0.92 daily="RU6_DU"
 
New "Load.BT_2819362_6090_M1" bus1="UC2819362.1.4" phases=1 conn=Delta model=2 kv=0.22 kw = 0.1142896 pf=0.92 status=variable vmaxpu=1.5 vminpu=0.92 daily="RU3_DU" 
New "Load.BT_2819362_6090_M2" bus1="UC2819362.1.4" phases=1 conn=Delta model=3 kv=0.22 kw = 0.1142896 pf=0.92 status=variable vmaxpu=1.5 vminpu=0.92 daily="RU3_DU"
 
New "Load.BT_2819368_6091_M1" bus1="UC2819368.1.4" phases=1 conn=Delta model=2 kv=0.22 kw = 0.2909494 pf=0.92 status=variable vmaxpu=1.5 vminpu=0.92 daily="RU2_DU" 
New "Load.BT_2819368_6091_M2" bus1="UC2819368.1.4" phases=1 conn=Delta model=3 kv=0.22 kw = 0.2909494 pf=0.92 status=variable vmaxpu=1.5 vminpu=0.92 daily="RU2_DU"
 
New "Load.BT_2805428_6119_M1" bus1="UC2805428.2.4" phases=1 conn=Delta model=2 kv=0.22 kw = 0.1400867 pf=0.92 status=variable vmaxpu=1.5 vminpu=0.92 daily="RU2_DU" 
New "Load.BT_2805428_6119_M2" bus1="UC2805428.2.4" phases=1 conn=Delta model=3 kv=0.22 kw = 0.1400867 pf=0.92 status=variable vmaxpu=1.5 vminpu=0.92 daily="RU2_DU"
 
New "Load.BT_2805429_6120_M1" bus1="UC2805429.1.4" phases=1 conn=Delta model=2 kv=0.22 kw = 0.2866390 pf=0.92 status=variable vmaxpu=1.5 vminpu=0.92 daily="RU2_DU" 
New "Load.BT_2805429_6120_M2" bus1="UC2805429.1.4" phases=1 conn=Delta model=3 kv=0.22 kw = 0.2866390 pf=0.92 status=variable vmaxpu=1.5 vminpu=0.92 daily="RU2_DU"
 
New "Load.BT_2805430_6121_M1" bus1="UC2805430.2.4" phases=1 conn=Delta model=2 kv=0.22 kw = 0.1461231 pf=0.92 status=variable vmaxpu=1.5 vminpu=0.92 daily="RU4_DU" 
New "Load.BT_2805430_6121_M2" bus1="UC2805430.2.4" phases=1 conn=Delta model=3 kv=0.22 kw = 0.1461231 pf=0.92 status=variable vmaxpu=1.5 vminpu=0.92 daily="RU4_DU"
 
New "Load.BT_2805431_6122_M1" bus1="UC2805431.1.2.3.4" phases=3 conn=Delta model=2 kv=0.38 kw = 0.0488617 pf=0.92 status=variable vmaxpu=1.5 vminpu=0.92 daily="CO6_DU" 
New "Load.BT_2805431_6122_M2" bus1="UC2805431.1.2.3.4" phases=3 conn=Delta model=3 kv=0.38 kw = 0.0488617 pf=0.92 status=variable vmaxpu=1.5 vminpu=0.92 daily="CO6_DU"
 
New "Load.BT_2805432_6123_M1" bus1="UC2805432.2.4" phases=1 conn=Delta model=2 kv=0.22 kw = 0.5475447 pf=0.92 status=variable vmaxpu=1.5 vminpu=0.92 daily="RU1_DU" 
New "Load.BT_2805432_6123_M2" bus1="UC2805432.2.4" phases=1 conn=Delta model=3 kv=0.22 kw = 0.5475447 pf=0.92 status=variable vmaxpu=1.5 vminpu=0.92 daily="RU1_DU"
 
New "Load.BT_2805434_6124_M1" bus1="UC2805434.1.4" phases=1 conn=Delta model=2 kv=0.22 kw = 0.0359199 pf=0.92 status=variable vmaxpu=1.5 vminpu=0.92 daily="CO5_DU" 
New "Load.BT_2805434_6124_M2" bus1="UC2805434.1.4" phases=1 conn=Delta model=3 kv=0.22 kw = 0.0359199 pf=0.92 status=variable vmaxpu=1.5 vminpu=0.92 daily="CO5_DU"
 
New "Load.BT_2805435_6125_M1" bus1="UC2805435.1.4" phases=1 conn=Delta model=2 kv=0.22 kw = 0.1903261 pf=0.92 status=variable vmaxpu=1.5 vminpu=0.92 daily="RU5_DU" 
New "Load.BT_2805435_6125_M2" bus1="UC2805435.1.4" phases=1 conn=Delta model=3 kv=0.22 kw = 0.1903261 pf=0.92 status=variable vmaxpu=1.5 vminpu=0.92 daily="RU5_DU"
 
New "Load.BT_2819369_6126_M1" bus1="UC2819369.1.4" phases=1 conn=Delta model=2 kv=0.22 kw = 0.0000000 pf=0.92 status=variable vmaxpu=1.5 vminpu=0.92 daily="PP6_DU" 
New "Load.BT_2819369_6126_M2" bus1="UC2819369.1.4" phases=1 conn=Delta model=3 kv=0.22 kw = 0.0000000 pf=0.92 status=variable vmaxpu=1.5 vminpu=0.92 daily="PP6_DU"
 
New "Load.BT_2819372_6127_M1" bus1="UC2819372.2.4" phases=1 conn=Delta model=2 kv=0.22 kw = 0.3565442 pf=0.92 status=variable vmaxpu=1.5 vminpu=0.92 daily="RU5_DU" 
New "Load.BT_2819372_6127_M2" bus1="UC2819372.2.4" phases=1 conn=Delta model=3 kv=0.22 kw = 0.3565442 pf=0.92 status=variable vmaxpu=1.5 vminpu=0.92 daily="RU5_DU"
 
New "Load.BT_2805421_6163_M1" bus1="UC2805421.1.4" phases=1 conn=Delta model=2 kv=0.22 kw = 0.5510102 pf=0.92 status=variable vmaxpu=1.5 vminpu=0.92 daily="RU1_DU" 
New "Load.BT_2805421_6163_M2" bus1="UC2805421.1.4" phases=1 conn=Delta model=3 kv=0.22 kw = 0.5510102 pf=0.92 status=variable vmaxpu=1.5 vminpu=0.92 daily="RU1_DU"
 
New "Load.BT_2805425_6164_M1" bus1="UC2805425.2.4" phases=1 conn=Delta model=2 kv=0.22 kw = 0.1350379 pf=0.92 status=variable vmaxpu=1.5 vminpu=0.92 daily="RU4_DU" 
New "Load.BT_2805425_6164_M2" bus1="UC2805425.2.4" phases=1 conn=Delta model=3 kv=0.22 kw = 0.1350379 pf=0.92 status=variable vmaxpu=1.5 vminpu=0.92 daily="RU4_DU"
 
New "Load.BT_2805426_6165_M1" bus1="UC2805426.1.4" phases=1 conn=Delta model=2 kv=0.22 kw = 0.2391176 pf=0.92 status=variable vmaxpu=1.5 vminpu=0.92 daily="RU1_DU" 
New "Load.BT_2805426_6165_M2" bus1="UC2805426.1.4" phases=1 conn=Delta model=3 kv=0.22 kw = 0.2391176 pf=0.92 status=variable vmaxpu=1.5 vminpu=0.92 daily="RU1_DU"
 
New "Load.BT_2819347_6166_M1" bus1="UC2819347.1.4" phases=1 conn=Delta model=2 kv=0.22 kw = 0.1186230 pf=0.92 status=variable vmaxpu=1.5 vminpu=0.92 daily="RU6_DU" 
New "Load.BT_2819347_6166_M2" bus1="UC2819347.1.4" phases=1 conn=Delta model=3 kv=0.22 kw = 0.1186230 pf=0.92 status=variable vmaxpu=1.5 vminpu=0.92 daily="RU6_DU"
 
New "Load.BT_2819356_6168_M1" bus1="UC2819356.3.4" phases=1 conn=Delta model=2 kv=0.22 kw = 0.3432227 pf=0.92 status=variable vmaxpu=1.5 vminpu=0.92 daily="RE5_DU" 
New "Load.BT_2819356_6168_M2" bus1="UC2819356.3.4" phases=1 conn=Delta model=3 kv=0.22 kw = 0.3432227 pf=0.92 status=variable vmaxpu=1.5 vminpu=0.92 daily="RE5_DU"
 
New "Load.BT_2819344_6220_M1" bus1="UC2819344.1.2.4" phases=1 conn=Delta model=2 kv=0.44 kw = 0.9218157 pf=0.92 status=variable vmaxpu=1.5 vminpu=0.92 daily="RU1_DU" 
New "Load.BT_2819344_6220_M2" bus1="UC2819344.1.2.4" phases=1 conn=Delta model=3 kv=0.44 kw = 0.9218157 pf=0.92 status=variable vmaxpu=1.5 vminpu=0.92 daily="RU1_DU"
 
New "Load.BT_2806082_6242_M1" bus1="UC2806082.1.4" phases=1 conn=Delta model=2 kv=0.22 kw = 0.0018141 pf=0.92 status=variable vmaxpu=1.5 vminpu=0.92 daily="RU3_DU" 
New "Load.BT_2806082_6242_M2" bus1="UC2806082.1.4" phases=1 conn=Delta model=3 kv=0.22 kw = 0.0018141 pf=0.92 status=variable vmaxpu=1.5 vminpu=0.92 daily="RU3_DU"
 
New "Load.BT_2806084_6243_M1" bus1="UC2806084.2.4" phases=1 conn=Delta model=2 kv=0.22 kw = 0.3742710 pf=0.92 status=variable vmaxpu=1.5 vminpu=0.92 daily="RU1_DU" 
New "Load.BT_2806084_6243_M2" bus1="UC2806084.2.4" phases=1 conn=Delta model=3 kv=0.22 kw = 0.3742710 pf=0.92 status=variable vmaxpu=1.5 vminpu=0.92 daily="RU1_DU"
 
New "Load.BT_2806086_6244_M1" bus1="UC2806086.1.4" phases=1 conn=Delta model=2 kv=0.22 kw = 0.0000000 pf=0.92 status=variable vmaxpu=1.5 vminpu=0.92 daily="RU2_DU" 
New "Load.BT_2806086_6244_M2" bus1="UC2806086.1.4" phases=1 conn=Delta model=3 kv=0.22 kw = 0.0000000 pf=0.92 status=variable vmaxpu=1.5 vminpu=0.92 daily="RU2_DU"
 
New "Load.BT_2806088_6245_M1" bus1="UC2806088.2.4" phases=1 conn=Delta model=2 kv=0.22 kw = 0.2408511 pf=0.92 status=variable vmaxpu=1.5 vminpu=0.92 daily="RU4_DU" 
New "Load.BT_2806088_6245_M2" bus1="UC2806088.2.4" phases=1 conn=Delta model=3 kv=0.22 kw = 0.2408511 pf=0.92 status=variable vmaxpu=1.5 vminpu=0.92 daily="RU4_DU"
 
New "Load.BT_2822265_6246_M1" bus1="UC2822265.1.4" phases=1 conn=Delta model=2 kv=0.22 kw = 0.2332302 pf=0.92 status=variable vmaxpu=1.5 vminpu=0.92 daily="RU7_DU" 
New "Load.BT_2822265_6246_M2" bus1="UC2822265.1.4" phases=1 conn=Delta model=3 kv=0.22 kw = 0.2332302 pf=0.92 status=variable vmaxpu=1.5 vminpu=0.92 daily="RU7_DU"
 
New "Load.BT_2823447_6248_M1" bus1="UC2823447.1.4" phases=1 conn=Delta model=2 kv=0.22 kw = 0.0953005 pf=0.92 status=variable vmaxpu=1.5 vminpu=0.92 daily="RU1_DU" 
New "Load.BT_2823447_6248_M2" bus1="UC2823447.1.4" phases=1 conn=Delta model=3 kv=0.22 kw = 0.0953005 pf=0.92 status=variable vmaxpu=1.5 vminpu=0.92 daily="RU1_DU"
 
New "Load.BT_2823477_6249_M1" bus1="UC2823477.2.4" phases=1 conn=Delta model=2 kv=0.22 kw = 0.2358357 pf=0.92 status=variable vmaxpu=1.5 vminpu=0.92 daily="RU3_DU" 
New "Load.BT_2823477_6249_M2" bus1="UC2823477.2.4" phases=1 conn=Delta model=3 kv=0.22 kw = 0.2358357 pf=0.92 status=variable vmaxpu=1.5 vminpu=0.92 daily="RU3_DU"
 
New "Load.BT_2823635_6250_M1" bus1="UC2823635.1.4" phases=1 conn=Delta model=2 kv=0.22 kw = 0.0012406 pf=0.92 status=variable vmaxpu=1.5 vminpu=0.92 daily="RU7_DU" 
New "Load.BT_2823635_6250_M2" bus1="UC2823635.1.4" phases=1 conn=Delta model=3 kv=0.22 kw = 0.0012406 pf=0.92 status=variable vmaxpu=1.5 vminpu=0.92 daily="RU7_DU"
 
New "Load.BT_2806081_6260_M1" bus1="UC2806081.1.4" phases=1 conn=Delta model=2 kv=0.22 kw = 0.3469841 pf=0.92 status=variable vmaxpu=1.5 vminpu=0.92 daily="RU2_DU" 
New "Load.BT_2806081_6260_M2" bus1="UC2806081.1.4" phases=1 conn=Delta model=3 kv=0.22 kw = 0.3469841 pf=0.92 status=variable vmaxpu=1.5 vminpu=0.92 daily="RU2_DU"
 
New "Load.BT_2806075_6276_M1" bus1="UC2806075.1.2.4" phases=1 conn=Delta model=2 kv=0.44 kw = 2.1621041 pf=0.92 status=variable vmaxpu=1.5 vminpu=0.92 daily="RU5_DU" 
New "Load.BT_2806075_6276_M2" bus1="UC2806075.1.2.4" phases=1 conn=Delta model=3 kv=0.44 kw = 2.1621041 pf=0.92 status=variable vmaxpu=1.5 vminpu=0.92 daily="RU5_DU"
 
New "Load.BT_2806076_6277_M1" bus1="UC2806076.2.4" phases=1 conn=Delta model=2 kv=0.22 kw = 1.0840559 pf=0.92 status=variable vmaxpu=1.5 vminpu=0.92 daily="RU2_DU" 
New "Load.BT_2806076_6277_M2" bus1="UC2806076.2.4" phases=1 conn=Delta model=3 kv=0.22 kw = 1.0840559 pf=0.92 status=variable vmaxpu=1.5 vminpu=0.92 daily="RU2_DU"
 
New "Load.BT_2805410_6293_M1" bus1="UC2805410.2.4" phases=1 conn=Delta model=2 kv=0.22 kw = 0.2715528 pf=0.92 status=variable vmaxpu=1.5 vminpu=0.92 daily="RU2_DU" 
New "Load.BT_2805410_6293_M2" bus1="UC2805410.2.4" phases=1 conn=Delta model=3 kv=0.22 kw = 0.2715528 pf=0.92 status=variable vmaxpu=1.5 vminpu=0.92 daily="RU2_DU"
 
New "Load.BT_2818343_6294_M1" bus1="UC2818343.2.4" phases=1 conn=Delta model=2 kv=0.22 kw = 0.1278955 pf=0.92 status=variable vmaxpu=1.5 vminpu=0.92 daily="RU3_DU" 
New "Load.BT_2818343_6294_M2" bus1="UC2818343.2.4" phases=1 conn=Delta model=3 kv=0.22 kw = 0.1278955 pf=0.92 status=variable vmaxpu=1.5 vminpu=0.92 daily="RU3_DU"
 
New "Load.BT_2818345_6295_M1" bus1="UC2818345.1.4" phases=1 conn=Delta model=2 kv=0.22 kw = 0.0000000 pf=0.92 status=variable vmaxpu=1.5 vminpu=0.92 daily="RE2_DU" 
New "Load.BT_2818345_6295_M2" bus1="UC2818345.1.4" phases=1 conn=Delta model=3 kv=0.22 kw = 0.0000000 pf=0.92 status=variable vmaxpu=1.5 vminpu=0.92 daily="RE2_DU"
 
New "Load.BT_2818346_6296_M1" bus1="UC2818346.2.4" phases=1 conn=Delta model=2 kv=0.22 kw = 0.0000000 pf=0.92 status=variable vmaxpu=1.5 vminpu=0.92 daily="RU3_DU" 
New "Load.BT_2818346_6296_M2" bus1="UC2818346.2.4" phases=1 conn=Delta model=3 kv=0.22 kw = 0.0000000 pf=0.92 status=variable vmaxpu=1.5 vminpu=0.92 daily="RU3_DU"
 
New "Load.BT_2818350_6297_M1" bus1="UC2818350.1.2.3.4" phases=3 conn=Delta model=2 kv=0.38 kw = 2.6368076 pf=0.92 status=variable vmaxpu=1.5 vminpu=0.92 daily="RE7_DU" 
New "Load.BT_2818350_6297_M2" bus1="UC2818350.1.2.3.4" phases=3 conn=Delta model=3 kv=0.38 kw = 2.6368076 pf=0.92 status=variable vmaxpu=1.5 vminpu=0.92 daily="RE7_DU"
 
New "Load.BT_2819343_6298_M1" bus1="UC2819343.1.4" phases=1 conn=Delta model=2 kv=0.22 kw = 0.4002621 pf=0.92 status=variable vmaxpu=1.5 vminpu=0.92 daily="RU1_DU" 
New "Load.BT_2819343_6298_M2" bus1="UC2819343.1.4" phases=1 conn=Delta model=3 kv=0.22 kw = 0.4002621 pf=0.92 status=variable vmaxpu=1.5 vminpu=0.92 daily="RU1_DU"
 
New "Load.BT_2818339_6325_M1" bus1="UC2818339.1.4" phases=1 conn=Delta model=2 kv=0.22 kw = 0.0066660 pf=0.92 status=variable vmaxpu=1.5 vminpu=0.92 daily="CO2_DU" 
New "Load.BT_2818339_6325_M2" bus1="UC2818339.1.4" phases=1 conn=Delta model=3 kv=0.22 kw = 0.0066660 pf=0.92 status=variable vmaxpu=1.5 vminpu=0.92 daily="CO2_DU"
 
New "Load.BT_2806070_6326_M1" bus1="UC2806070.1.4" phases=1 conn=Delta model=2 kv=0.22 kw = 0.1804635 pf=0.92 status=variable vmaxpu=1.5 vminpu=0.92 daily="RU8_DU" 
New "Load.BT_2806070_6326_M2" bus1="UC2806070.1.4" phases=1 conn=Delta model=3 kv=0.22 kw = 0.1804635 pf=0.92 status=variable vmaxpu=1.5 vminpu=0.92 daily="RU8_DU"
 
New "Load.BT_2806071_6327_M1" bus1="UC2806071.1.4" phases=1 conn=Delta model=2 kv=0.22 kw = 0.0495692 pf=0.92 status=variable vmaxpu=1.5 vminpu=0.92 daily="RU2_DU" 
New "Load.BT_2806071_6327_M2" bus1="UC2806071.1.4" phases=1 conn=Delta model=3 kv=0.22 kw = 0.0495692 pf=0.92 status=variable vmaxpu=1.5 vminpu=0.92 daily="RU2_DU"
 
New "Load.BT_2806072_6328_M1" bus1="UC2806072.1.4" phases=1 conn=Delta model=2 kv=0.22 kw = 0.1022314 pf=0.92 status=variable vmaxpu=1.5 vminpu=0.92 daily="RU1_DU" 
New "Load.BT_2806072_6328_M2" bus1="UC2806072.1.4" phases=1 conn=Delta model=3 kv=0.22 kw = 0.1022314 pf=0.92 status=variable vmaxpu=1.5 vminpu=0.92 daily="RU1_DU"
 
New "Load.BT_2806073_6329_M1" bus1="UC2806073.1.4" phases=1 conn=Delta model=2 kv=0.22 kw = 0.2555364 pf=0.92 status=variable vmaxpu=1.5 vminpu=0.92 daily="RU8_DU" 
New "Load.BT_2806073_6329_M2" bus1="UC2806073.1.4" phases=1 conn=Delta model=3 kv=0.22 kw = 0.2555364 pf=0.92 status=variable vmaxpu=1.5 vminpu=0.92 daily="RU8_DU"
 
New "Load.BT_2806074_6330_M1" bus1="UC2806074.1.4" phases=1 conn=Delta model=2 kv=0.22 kw = 0.1836701 pf=0.92 status=variable vmaxpu=1.5 vminpu=0.92 daily="RU1_DU" 
New "Load.BT_2806074_6330_M2" bus1="UC2806074.1.4" phases=1 conn=Delta model=3 kv=0.22 kw = 0.1836701 pf=0.92 status=variable vmaxpu=1.5 vminpu=0.92 daily="RU1_DU"
 
New "Load.BT_2821691_6331_M1" bus1="UC2821691.3.4" phases=1 conn=Delta model=2 kv=0.22 kw = 0.2653916 pf=0.92 status=variable vmaxpu=1.5 vminpu=0.92 daily="RE5_DU" 
New "Load.BT_2821691_6331_M2" bus1="UC2821691.3.4" phases=1 conn=Delta model=3 kv=0.22 kw = 0.2653916 pf=0.92 status=variable vmaxpu=1.5 vminpu=0.92 daily="RE5_DU"
 
New "Load.BT_2821694_6332_M1" bus1="UC2821694.1.4" phases=1 conn=Delta model=2 kv=0.22 kw = 0.7067441 pf=0.92 status=variable vmaxpu=1.5 vminpu=0.92 daily="RU5_DU" 
New "Load.BT_2821694_6332_M2" bus1="UC2821694.1.4" phases=1 conn=Delta model=3 kv=0.22 kw = 0.7067441 pf=0.92 status=variable vmaxpu=1.5 vminpu=0.92 daily="RU5_DU"
 
New "Load.BT_2821695_6333_M1" bus1="UC2821695.1.4" phases=1 conn=Delta model=2 kv=0.22 kw = 0.3755768 pf=0.92 status=variable vmaxpu=1.5 vminpu=0.92 daily="RU5_DU" 
New "Load.BT_2821695_6333_M2" bus1="UC2821695.1.4" phases=1 conn=Delta model=3 kv=0.22 kw = 0.3755768 pf=0.92 status=variable vmaxpu=1.5 vminpu=0.92 daily="RU5_DU"
 
New "Load.BT_2822259_6334_M1" bus1="UC2822259.1.4" phases=1 conn=Delta model=2 kv=0.22 kw = 0.1732736 pf=0.92 status=variable vmaxpu=1.5 vminpu=0.92 daily="RU1_DU" 
New "Load.BT_2822259_6334_M2" bus1="UC2822259.1.4" phases=1 conn=Delta model=3 kv=0.22 kw = 0.1732736 pf=0.92 status=variable vmaxpu=1.5 vminpu=0.92 daily="RU1_DU"
 
New "Load.BT_2822261_6335_M1" bus1="UC2822261.1.4" phases=1 conn=Delta model=2 kv=0.22 kw = 0.2059290 pf=0.92 status=variable vmaxpu=1.5 vminpu=0.92 daily="RE2_DU" 
New "Load.BT_2822261_6335_M2" bus1="UC2822261.1.4" phases=1 conn=Delta model=3 kv=0.22 kw = 0.2059290 pf=0.92 status=variable vmaxpu=1.5 vminpu=0.92 daily="RE2_DU"
 
New "Load.BT_2822262_6336_M1" bus1="UC2822262.2.4" phases=1 conn=Delta model=2 kv=0.22 kw = 0.4599506 pf=0.92 status=variable vmaxpu=1.5 vminpu=0.92 daily="CO2_DU" 
New "Load.BT_2822262_6336_M2" bus1="UC2822262.2.4" phases=1 conn=Delta model=3 kv=0.22 kw = 0.4599506 pf=0.92 status=variable vmaxpu=1.5 vminpu=0.92 daily="CO2_DU"
 
New "Load.BT_2805398_6337_M1" bus1="UC2805398.1.4" phases=1 conn=Delta model=2 kv=0.22 kw = 0.1724415 pf=0.92 status=variable vmaxpu=1.5 vminpu=0.92 daily="RU7_DU" 
New "Load.BT_2805398_6337_M2" bus1="UC2805398.1.4" phases=1 conn=Delta model=3 kv=0.22 kw = 0.1724415 pf=0.92 status=variable vmaxpu=1.5 vminpu=0.92 daily="RU7_DU"
 
New "Load.BT_2805400_6338_M1" bus1="UC2805400.1.4" phases=1 conn=Delta model=2 kv=0.22 kw = 0.2219836 pf=0.92 status=variable vmaxpu=1.5 vminpu=0.92 daily="RU2_DU" 
New "Load.BT_2805400_6338_M2" bus1="UC2805400.1.4" phases=1 conn=Delta model=3 kv=0.22 kw = 0.2219836 pf=0.92 status=variable vmaxpu=1.5 vminpu=0.92 daily="RU2_DU"
 
New "Load.BT_2818330_6339_M1" bus1="UC2818330.2.4" phases=1 conn=Delta model=2 kv=0.22 kw = 0.1469438 pf=0.92 status=variable vmaxpu=1.5 vminpu=0.92 daily="RU3_DU" 
New "Load.BT_2818330_6339_M2" bus1="UC2818330.2.4" phases=1 conn=Delta model=3 kv=0.22 kw = 0.1469438 pf=0.92 status=variable vmaxpu=1.5 vminpu=0.92 daily="RU3_DU"
 
New "Load.BT_2818331_6340_M1" bus1="UC2818331.1.4" phases=1 conn=Delta model=2 kv=0.22 kw = 0.1966703 pf=0.92 status=variable vmaxpu=1.5 vminpu=0.92 daily="RU5_DU" 
New "Load.BT_2818331_6340_M2" bus1="UC2818331.1.4" phases=1 conn=Delta model=3 kv=0.22 kw = 0.1966703 pf=0.92 status=variable vmaxpu=1.5 vminpu=0.92 daily="RU5_DU"
 
New "Load.BT_2818332_6341_M1" bus1="UC2818332.1.4" phases=1 conn=Delta model=2 kv=0.22 kw = 0.2468741 pf=0.92 status=variable vmaxpu=1.5 vminpu=0.92 daily="RU8_DU" 
New "Load.BT_2818332_6341_M2" bus1="UC2818332.1.4" phases=1 conn=Delta model=3 kv=0.22 kw = 0.2468741 pf=0.92 status=variable vmaxpu=1.5 vminpu=0.92 daily="RU8_DU"
 
New "Load.BT_2818333_6342_M1" bus1="UC2818333.1.4" phases=1 conn=Delta model=2 kv=0.22 kw = 0.1069933 pf=0.92 status=variable vmaxpu=1.5 vminpu=0.92 daily="RU6_DU" 
New "Load.BT_2818333_6342_M2" bus1="UC2818333.1.4" phases=1 conn=Delta model=3 kv=0.22 kw = 0.1069933 pf=0.92 status=variable vmaxpu=1.5 vminpu=0.92 daily="RU6_DU"
 
New "Load.BT_2818335_6343_M1" bus1="UC2818335.1.4" phases=1 conn=Delta model=2 kv=0.22 kw = 0.2512304 pf=0.92 status=variable vmaxpu=1.5 vminpu=0.92 daily="RU5_DU" 
New "Load.BT_2818335_6343_M2" bus1="UC2818335.1.4" phases=1 conn=Delta model=3 kv=0.22 kw = 0.2512304 pf=0.92 status=variable vmaxpu=1.5 vminpu=0.92 daily="RU5_DU"
 
New "Load.BT_2818337_6344_M1" bus1="UC2818337.2.4" phases=1 conn=Delta model=2 kv=0.22 kw = 0.0000000 pf=0.92 status=variable vmaxpu=1.5 vminpu=0.92 daily="RU4_DU" 
New "Load.BT_2818337_6344_M2" bus1="UC2818337.2.4" phases=1 conn=Delta model=3 kv=0.22 kw = 0.0000000 pf=0.92 status=variable vmaxpu=1.5 vminpu=0.92 daily="RU4_DU"
 
New "Load.BT_2805395_6355_M1" bus1="UC2805395.2.4" phases=1 conn=Delta model=2 kv=0.22 kw = 0.2151125 pf=0.92 status=variable vmaxpu=1.5 vminpu=0.92 daily="RU8_DU" 
New "Load.BT_2805395_6355_M2" bus1="UC2805395.2.4" phases=1 conn=Delta model=3 kv=0.22 kw = 0.2151125 pf=0.92 status=variable vmaxpu=1.5 vminpu=0.92 daily="RU8_DU"
 
New "Load.BT_2805797_6366_M1" bus1="UC2805797.2.4" phases=1 conn=Delta model=2 kv=0.22 kw = 0.1400867 pf=0.92 status=variable vmaxpu=1.5 vminpu=0.92 daily="RU2_DU" 
New "Load.BT_2805797_6366_M2" bus1="UC2805797.2.4" phases=1 conn=Delta model=3 kv=0.22 kw = 0.1400867 pf=0.92 status=variable vmaxpu=1.5 vminpu=0.92 daily="RU2_DU"
 
New "Load.BT_2806068_6369_M1" bus1="UC2806068.2.4" phases=1 conn=Delta model=2 kv=0.22 kw = 0.1525921 pf=0.92 status=variable vmaxpu=1.5 vminpu=0.92 daily="RU7_DU" 
New "Load.BT_2806068_6369_M2" bus1="UC2806068.2.4" phases=1 conn=Delta model=3 kv=0.22 kw = 0.1525921 pf=0.92 status=variable vmaxpu=1.5 vminpu=0.92 daily="RU7_DU"
 
New "Load.BT_2805796_6416_M1" bus1="UC2805796.1.2.4" phases=1 conn=Delta model=2 kv=0.44 kw = 0.6637957 pf=0.92 status=variable vmaxpu=1.5 vminpu=0.92 daily="RU2_DU" 
New "Load.BT_2805796_6416_M2" bus1="UC2805796.1.2.4" phases=1 conn=Delta model=3 kv=0.44 kw = 0.6637957 pf=0.92 status=variable vmaxpu=1.5 vminpu=0.92 daily="RU2_DU"
 
New "Load.BT_2821297_6417_M1" bus1="UC2821297.2.4" phases=1 conn=Delta model=2 kv=0.22 kw = 0.2892956 pf=0.92 status=variable vmaxpu=1.5 vminpu=0.92 daily="RU5_DU" 
New "Load.BT_2821297_6417_M2" bus1="UC2821297.2.4" phases=1 conn=Delta model=3 kv=0.22 kw = 0.2892956 pf=0.92 status=variable vmaxpu=1.5 vminpu=0.92 daily="RU5_DU"
 
New "Load.BT_2821676_6418_M1" bus1="UC2821676.2.4" phases=1 conn=Delta model=2 kv=0.22 kw = 0.0641112 pf=0.92 status=variable vmaxpu=1.5 vminpu=0.92 daily="RU1_DU" 
New "Load.BT_2821676_6418_M2" bus1="UC2821676.2.4" phases=1 conn=Delta model=3 kv=0.22 kw = 0.0641112 pf=0.92 status=variable vmaxpu=1.5 vminpu=0.92 daily="RU1_DU"
 
New "Load.BT_2821681_6419_M1" bus1="UC2821681.1.4" phases=1 conn=Delta model=2 kv=0.22 kw = 0.2616683 pf=0.92 status=variable vmaxpu=1.5 vminpu=0.92 daily="RU6_DU" 
New "Load.BT_2821681_6419_M2" bus1="UC2821681.1.4" phases=1 conn=Delta model=3 kv=0.22 kw = 0.2616683 pf=0.92 status=variable vmaxpu=1.5 vminpu=0.92 daily="RU6_DU"
 
New "Load.BT_2821687_6420_M1" bus1="UC2821687.1.4" phases=1 conn=Delta model=2 kv=0.22 kw = 0.4655190 pf=0.92 status=variable vmaxpu=1.5 vminpu=0.92 daily="RU2_DU" 
New "Load.BT_2821687_6420_M2" bus1="UC2821687.1.4" phases=1 conn=Delta model=3 kv=0.22 kw = 0.4655190 pf=0.92 status=variable vmaxpu=1.5 vminpu=0.92 daily="RU2_DU"
 
New "Load.BT_2805389_6421_M1" bus1="UC2805389.2.4" phases=1 conn=Delta model=2 kv=0.22 kw = 0.2859015 pf=0.92 status=variable vmaxpu=1.5 vminpu=0.92 daily="RU1_DU" 
New "Load.BT_2805389_6421_M2" bus1="UC2805389.2.4" phases=1 conn=Delta model=3 kv=0.22 kw = 0.2859015 pf=0.92 status=variable vmaxpu=1.5 vminpu=0.92 daily="RU1_DU"
 
New "Load.BT_2805390_6422_M1" bus1="UC2805390.1.2.4" phases=1 conn=Delta model=2 kv=0.44 kw = 0.3652582 pf=0.92 status=variable vmaxpu=1.5 vminpu=0.92 daily="RU8_DU" 
New "Load.BT_2805390_6422_M2" bus1="UC2805390.1.2.4" phases=1 conn=Delta model=3 kv=0.44 kw = 0.3652582 pf=0.92 status=variable vmaxpu=1.5 vminpu=0.92 daily="RU8_DU"
 
New "Load.BT_2805391_6423_M1" bus1="UC2805391.1.4" phases=1 conn=Delta model=2 kv=0.22 kw = 0.1922909 pf=0.92 status=variable vmaxpu=1.5 vminpu=0.92 daily="RU7_DU" 
New "Load.BT_2805391_6423_M2" bus1="UC2805391.1.4" phases=1 conn=Delta model=3 kv=0.22 kw = 0.1922909 pf=0.92 status=variable vmaxpu=1.5 vminpu=0.92 daily="RU7_DU"
 
New "Load.BT_2805392_6424_M1" bus1="UC2805392.2.4" phases=1 conn=Delta model=2 kv=0.22 kw = 0.0022220 pf=0.92 status=variable vmaxpu=1.5 vminpu=0.92 daily="CO2_DU" 
New "Load.BT_2805392_6424_M2" bus1="UC2805392.2.4" phases=1 conn=Delta model=3 kv=0.22 kw = 0.0022220 pf=0.92 status=variable vmaxpu=1.5 vminpu=0.92 daily="CO2_DU"
 
New "Load.BT_2818315_6425_M1" bus1="UC2818315.1.2.4" phases=1 conn=Delta model=2 kv=0.44 kw = 1.7292709 pf=0.92 status=variable vmaxpu=1.5 vminpu=0.92 daily="RU1_DU" 
New "Load.BT_2818315_6425_M2" bus1="UC2818315.1.2.4" phases=1 conn=Delta model=3 kv=0.44 kw = 1.7292709 pf=0.92 status=variable vmaxpu=1.5 vminpu=0.92 daily="RU1_DU"
 
New "Load.BT_2818316_6426_M1" bus1="UC2818316.1.4" phases=1 conn=Delta model=2 kv=0.22 kw = 0.3312365 pf=0.92 status=variable vmaxpu=1.5 vminpu=0.92 daily="RU7_DU" 
New "Load.BT_2818316_6426_M2" bus1="UC2818316.1.4" phases=1 conn=Delta model=3 kv=0.22 kw = 0.3312365 pf=0.92 status=variable vmaxpu=1.5 vminpu=0.92 daily="RU7_DU"
 
New "Load.BT_2818317_6427_M1" bus1="UC2818317.1.2.4" phases=1 conn=Delta model=2 kv=0.44 kw = 0.5486092 pf=0.92 status=variable vmaxpu=1.5 vminpu=0.92 daily="RU8_DU" 
New "Load.BT_2818317_6427_M2" bus1="UC2818317.1.2.4" phases=1 conn=Delta model=3 kv=0.44 kw = 0.5486092 pf=0.92 status=variable vmaxpu=1.5 vminpu=0.92 daily="RU8_DU"
 
New "Load.BT_2818321_6428_M1" bus1="UC2818321.1.4" phases=1 conn=Delta model=2 kv=0.22 kw = 0.1483659 pf=0.92 status=variable vmaxpu=1.5 vminpu=0.92 daily="RE4_DU" 
New "Load.BT_2818321_6428_M2" bus1="UC2818321.1.4" phases=1 conn=Delta model=3 kv=0.22 kw = 0.1483659 pf=0.92 status=variable vmaxpu=1.5 vminpu=0.92 daily="RE4_DU"
 
New "Load.BT_2818322_6429_M1" bus1="UC2818322.1.4" phases=1 conn=Delta model=2 kv=0.22 kw = 0.3884321 pf=0.92 status=variable vmaxpu=1.5 vminpu=0.92 daily="RU6_DU" 
New "Load.BT_2818322_6429_M2" bus1="UC2818322.1.4" phases=1 conn=Delta model=3 kv=0.22 kw = 0.3884321 pf=0.92 status=variable vmaxpu=1.5 vminpu=0.92 daily="RU6_DU"
 
New "Load.BT_2818329_6430_M1" bus1="UC2818329.1.4" phases=1 conn=Delta model=2 kv=0.22 kw = 0.3500127 pf=0.92 status=variable vmaxpu=1.5 vminpu=0.92 daily="RU1_DU" 
New "Load.BT_2818329_6430_M2" bus1="UC2818329.1.4" phases=1 conn=Delta model=3 kv=0.22 kw = 0.3500127 pf=0.92 status=variable vmaxpu=1.5 vminpu=0.92 daily="RU1_DU"
 
New "Load.BT_2805792_6450_M1" bus1="UC2805792.1.4" phases=1 conn=Delta model=2 kv=0.22 kw = 0.0285335 pf=0.92 status=variable vmaxpu=1.5 vminpu=0.92 daily="RU7_DU" 
New "Load.BT_2805792_6450_M2" bus1="UC2805792.1.4" phases=1 conn=Delta model=3 kv=0.22 kw = 0.0285335 pf=0.92 status=variable vmaxpu=1.5 vminpu=0.92 daily="RU7_DU"
 
New "Load.BT_2805384_6458_M1" bus1="UC2805384.2.4" phases=1 conn=Delta model=2 kv=0.22 kw = 0.2564450 pf=0.92 status=variable vmaxpu=1.5 vminpu=0.92 daily="RU1_DU" 
New "Load.BT_2805384_6458_M2" bus1="UC2805384.2.4" phases=1 conn=Delta model=3 kv=0.22 kw = 0.2564450 pf=0.92 status=variable vmaxpu=1.5 vminpu=0.92 daily="RU1_DU"
 
New "Load.BT_2805385_6459_M1" bus1="UC2805385.1.4" phases=1 conn=Delta model=2 kv=0.22 kw = 0.0000000 pf=0.92 status=variable vmaxpu=1.5 vminpu=0.92 daily="RU2_DU" 
New "Load.BT_2805385_6459_M2" bus1="UC2805385.1.4" phases=1 conn=Delta model=3 kv=0.22 kw = 0.0000000 pf=0.92 status=variable vmaxpu=1.5 vminpu=0.92 daily="RU2_DU"
 
New "Load.BT_2805386_6460_M1" bus1="UC2805386.1.4" phases=1 conn=Delta model=2 kv=0.22 kw = 0.0371895 pf=0.92 status=variable vmaxpu=1.5 vminpu=0.92 daily="RU3_DU" 
New "Load.BT_2805386_6460_M2" bus1="UC2805386.1.4" phases=1 conn=Delta model=3 kv=0.22 kw = 0.0371895 pf=0.92 status=variable vmaxpu=1.5 vminpu=0.92 daily="RU3_DU"
 
New "Load.BT_2825862_6470_M1" bus1="UC2825862.1.2.4" phases=1 conn=Delta model=2 kv=0.44 kw = 0.1168985 pf=0.92 status=variable vmaxpu=1.5 vminpu=0.92 daily="RU4_DU" 
New "Load.BT_2825862_6470_M2" bus1="UC2825862.1.2.4" phases=1 conn=Delta model=3 kv=0.44 kw = 0.1168985 pf=0.92 status=variable vmaxpu=1.5 vminpu=0.92 daily="RU4_DU"
 
New "Load.BT_2825865_6471_M1" bus1="UC2825865.1.4" phases=1 conn=Delta model=2 kv=0.22 kw = 0.0571448 pf=0.92 status=variable vmaxpu=1.5 vminpu=0.92 daily="RU3_DU" 
New "Load.BT_2825865_6471_M2" bus1="UC2825865.1.4" phases=1 conn=Delta model=3 kv=0.22 kw = 0.0571448 pf=0.92 status=variable vmaxpu=1.5 vminpu=0.92 daily="RU3_DU"
 
New "Load.BT_2826216_6472_M1" bus1="UC2826216.1.4" phases=1 conn=Delta model=2 kv=0.22 kw = 0.4806428 pf=0.92 status=variable vmaxpu=1.5 vminpu=0.92 daily="RE6_DU" 
New "Load.BT_2826216_6472_M2" bus1="UC2826216.1.4" phases=1 conn=Delta model=3 kv=0.22 kw = 0.4806428 pf=0.92 status=variable vmaxpu=1.5 vminpu=0.92 daily="RE6_DU"
 
New "Load.BT_2820650_6588_M1" bus1="UC2820650.1.4" phases=1 conn=Delta model=2 kv=0.22 kw = 0.0927126 pf=0.92 status=variable vmaxpu=1.5 vminpu=0.92 daily="RU4_DU" 
New "Load.BT_2820650_6588_M2" bus1="UC2820650.1.4" phases=1 conn=Delta model=3 kv=0.22 kw = 0.0927126 pf=0.92 status=variable vmaxpu=1.5 vminpu=0.92 daily="RU4_DU"
 
New "Load.BT_2821023_6589_M1" bus1="UC2821023.1.4" phases=1 conn=Delta model=2 kv=0.22 kw = 0.2096611 pf=0.92 status=variable vmaxpu=1.5 vminpu=0.92 daily="RU1_DU" 
New "Load.BT_2821023_6589_M2" bus1="UC2821023.1.4" phases=1 conn=Delta model=3 kv=0.22 kw = 0.2096611 pf=0.92 status=variable vmaxpu=1.5 vminpu=0.92 daily="RU1_DU"
 
New "Load.BT_2821025_6590_M1" bus1="UC2821025.1.4" phases=1 conn=Delta model=2 kv=0.22 kw = 0.4235585 pf=0.92 status=variable vmaxpu=1.5 vminpu=0.92 daily="RE2_DU" 
New "Load.BT_2821025_6590_M2" bus1="UC2821025.1.4" phases=1 conn=Delta model=3 kv=0.22 kw = 0.4235585 pf=0.92 status=variable vmaxpu=1.5 vminpu=0.92 daily="RE2_DU"
 
New "Load.BT_2821026_6591_M1" bus1="UC2821026.1.4" phases=1 conn=Delta model=2 kv=0.22 kw = 0.0580519 pf=0.92 status=variable vmaxpu=1.5 vminpu=0.92 daily="RU3_DU" 
New "Load.BT_2821026_6591_M2" bus1="UC2821026.1.4" phases=1 conn=Delta model=3 kv=0.22 kw = 0.0580519 pf=0.92 status=variable vmaxpu=1.5 vminpu=0.92 daily="RU3_DU"
 
New "Load.BT_2821288_6592_M1" bus1="UC2821288.2.4" phases=1 conn=Delta model=2 kv=0.22 kw = 0.1448666 pf=0.92 status=variable vmaxpu=1.5 vminpu=0.92 daily="RE6_DU" 
New "Load.BT_2821288_6592_M2" bus1="UC2821288.2.4" phases=1 conn=Delta model=3 kv=0.22 kw = 0.1448666 pf=0.92 status=variable vmaxpu=1.5 vminpu=0.92 daily="RE6_DU"
 
New "Load.BT_2821290_6593_M1" bus1="UC2821290.3.4" phases=1 conn=Delta model=2 kv=0.22 kw = 0.2209301 pf=0.92 status=variable vmaxpu=1.5 vminpu=0.92 daily="RE8_DU" 
New "Load.BT_2821290_6593_M2" bus1="UC2821290.3.4" phases=1 conn=Delta model=3 kv=0.22 kw = 0.2209301 pf=0.92 status=variable vmaxpu=1.5 vminpu=0.92 daily="RE8_DU"
 
New "Load.BT_2819397_6629_M1" bus1="UC2819397.1.4" phases=1 conn=Delta model=2 kv=0.22 kw = 0.3721542 pf=0.92 status=variable vmaxpu=1.5 vminpu=0.92 daily="CO7_DU" 
New "Load.BT_2819397_6629_M2" bus1="UC2819397.1.4" phases=1 conn=Delta model=3 kv=0.22 kw = 0.3721542 pf=0.92 status=variable vmaxpu=1.5 vminpu=0.92 daily="CO7_DU"
 
New "Load.BT_2819399_6630_M1" bus1="UC2819399.3.4" phases=1 conn=Delta model=2 kv=0.22 kw = 0.1569245 pf=0.92 status=variable vmaxpu=1.5 vminpu=0.92 daily="RE7_DU" 
New "Load.BT_2819399_6630_M2" bus1="UC2819399.3.4" phases=1 conn=Delta model=3 kv=0.22 kw = 0.1569245 pf=0.92 status=variable vmaxpu=1.5 vminpu=0.92 daily="RE7_DU"
 
New "Load.BT_2819400_6631_M1" bus1="UC2819400.2.4" phases=1 conn=Delta model=2 kv=0.22 kw = 0.3312365 pf=0.92 status=variable vmaxpu=1.5 vminpu=0.92 daily="RU7_DU" 
New "Load.BT_2819400_6631_M2" bus1="UC2819400.2.4" phases=1 conn=Delta model=3 kv=0.22 kw = 0.3312365 pf=0.92 status=variable vmaxpu=1.5 vminpu=0.92 daily="RU7_DU"
 
New "Load.BT_2820643_6632_M1" bus1="UC2820643.2.4" phases=1 conn=Delta model=2 kv=0.22 kw = 0.1954014 pf=0.92 status=variable vmaxpu=1.5 vminpu=0.92 daily="RU5_DU" 
New "Load.BT_2820643_6632_M2" bus1="UC2820643.2.4" phases=1 conn=Delta model=3 kv=0.22 kw = 0.1954014 pf=0.92 status=variable vmaxpu=1.5 vminpu=0.92 daily="RU5_DU"
 
New "Load.BT_2820646_6633_M1" bus1="UC2820646.2.4" phases=1 conn=Delta model=2 kv=0.22 kw = 0.0000000 pf=0.92 status=variable vmaxpu=1.5 vminpu=0.92 daily="RU5_DU" 
New "Load.BT_2820646_6633_M2" bus1="UC2820646.2.4" phases=1 conn=Delta model=3 kv=0.22 kw = 0.0000000 pf=0.92 status=variable vmaxpu=1.5 vminpu=0.92 daily="RU5_DU"
 
New "Load.BT_2805776_6663_M1" bus1="UC2805776.2.4" phases=1 conn=Delta model=2 kv=0.22 kw = 0.0359770 pf=0.92 status=variable vmaxpu=1.5 vminpu=0.92 daily="RU7_DU" 
New "Load.BT_2805776_6663_M2" bus1="UC2805776.2.4" phases=1 conn=Delta model=3 kv=0.22 kw = 0.0359770 pf=0.92 status=variable vmaxpu=1.5 vminpu=0.92 daily="RU7_DU"
 
New "Load.BT_2805257_6671_M1" bus1="UC2805257.1.2.4" phases=1 conn=Delta model=2 kv=0.38 kw = 0.6892978 pf=0.92 status=variable vmaxpu=1.5 vminpu=0.92 daily="RU4_DU" 
New "Load.BT_2805257_6671_M2" bus1="UC2805257.1.2.4" phases=1 conn=Delta model=3 kv=0.38 kw = 0.6892978 pf=0.92 status=variable vmaxpu=1.5 vminpu=0.92 daily="RU4_DU"
 
New "Load.BT_2805363_6690_M1" bus1="UC2805363.2.4" phases=1 conn=Delta model=2 kv=0.22 kw = 0.0000000 pf=0.92 status=variable vmaxpu=1.5 vminpu=0.92 daily="RE2_DU" 
New "Load.BT_2805363_6690_M2" bus1="UC2805363.2.4" phases=1 conn=Delta model=3 kv=0.22 kw = 0.0000000 pf=0.92 status=variable vmaxpu=1.5 vminpu=0.92 daily="RE2_DU"
 
New "Load.BT_2805359_6710_M1" bus1="UC2805359.1.4" phases=1 conn=Delta model=2 kv=0.22 kw = 0.3260920 pf=0.92 status=variable vmaxpu=1.5 vminpu=0.92 daily="RU5_DU" 
New "Load.BT_2805359_6710_M2" bus1="UC2805359.1.4" phases=1 conn=Delta model=3 kv=0.22 kw = 0.3260920 pf=0.92 status=variable vmaxpu=1.5 vminpu=0.92 daily="RU5_DU"
 
New "Load.BT_2805360_6711_M1" bus1="UC2805360.1.4" phases=1 conn=Delta model=2 kv=0.22 kw = 0.1325786 pf=0.92 status=variable vmaxpu=1.5 vminpu=0.92 daily="RU6_DU" 
New "Load.BT_2805360_6711_M2" bus1="UC2805360.1.4" phases=1 conn=Delta model=3 kv=0.22 kw = 0.1325786 pf=0.92 status=variable vmaxpu=1.5 vminpu=0.92 daily="RU6_DU"
 
New "Load.BT_2805255_6732_M1" bus1="UC2805255.1.4" phases=1 conn=Delta model=2 kv=0.22 kw = 0.1337416 pf=0.92 status=variable vmaxpu=1.5 vminpu=0.92 daily="RU6_DU" 
New "Load.BT_2805255_6732_M2" bus1="UC2805255.1.4" phases=1 conn=Delta model=3 kv=0.22 kw = 0.1337416 pf=0.92 status=variable vmaxpu=1.5 vminpu=0.92 daily="RU6_DU"
 
New "Load.BT_2805256_6733_M1" bus1="UC2805256.1.2.4" phases=1 conn=Delta model=2 kv=0.38 kw = 0.4131152 pf=0.92 status=variable vmaxpu=1.5 vminpu=0.92 daily="RU7_DU" 
New "Load.BT_2805256_6733_M2" bus1="UC2805256.1.2.4" phases=1 conn=Delta model=3 kv=0.38 kw = 0.4131152 pf=0.92 status=variable vmaxpu=1.5 vminpu=0.92 daily="RU7_DU"
 
New "Load.BT_2805357_6743_M1" bus1="UC2805357.1.2.3.4" phases=3 conn=Delta model=2 kv=0.38 kw = 2.7866487 pf=0.92 status=variable vmaxpu=1.5 vminpu=0.92 daily="RU2_DU" 
New "Load.BT_2805357_6743_M2" bus1="UC2805357.1.2.3.4" phases=3 conn=Delta model=3 kv=0.38 kw = 2.7866487 pf=0.92 status=variable vmaxpu=1.5 vminpu=0.92 daily="RU2_DU"
 
New "Load.BT_2805358_6744_M1" bus1="UC2805358.1.4" phases=1 conn=Delta model=2 kv=0.22 kw = 0.1364645 pf=0.92 status=variable vmaxpu=1.5 vminpu=0.92 daily="RU7_DU" 
New "Load.BT_2805358_6744_M2" bus1="UC2805358.1.4" phases=1 conn=Delta model=3 kv=0.22 kw = 0.1364645 pf=0.92 status=variable vmaxpu=1.5 vminpu=0.92 daily="RU7_DU"
 
New "Load.BT_2805310_6753_M1" bus1="UC2805310.2.4" phases=1 conn=Delta model=2 kv=0.22 kw = 0.5250191 pf=0.92 status=variable vmaxpu=1.5 vminpu=0.92 daily="RU1_DU" 
New "Load.BT_2805310_6753_M2" bus1="UC2805310.2.4" phases=1 conn=Delta model=3 kv=0.22 kw = 0.5250191 pf=0.92 status=variable vmaxpu=1.5 vminpu=0.92 daily="RU1_DU"
 
New "Load.BT_2805311_6754_M1" bus1="UC2805311.2.4" phases=1 conn=Delta model=2 kv=0.22 kw = 0.1198278 pf=0.92 status=variable vmaxpu=1.5 vminpu=0.92 daily="RU8_DU" 
New "Load.BT_2805311_6754_M2" bus1="UC2805311.2.4" phases=1 conn=Delta model=3 kv=0.22 kw = 0.1198278 pf=0.92 status=variable vmaxpu=1.5 vminpu=0.92 daily="RU8_DU"
 
New "Load.BT_2805313_6755_M1" bus1="UC2805313.1.2.4" phases=1 conn=Delta model=2 kv=0.44 kw = 0.8580792 pf=0.92 status=variable vmaxpu=1.5 vminpu=0.92 daily="RU3_DU" 
New "Load.BT_2805313_6755_M2" bus1="UC2805313.1.2.4" phases=1 conn=Delta model=3 kv=0.44 kw = 0.8580792 pf=0.92 status=variable vmaxpu=1.5 vminpu=0.92 daily="RU3_DU"
 
New "Load.BT_2805314_6756_M1" bus1="UC2805314.1.2.4" phases=1 conn=Delta model=2 kv=0.44 kw = 0.2064503 pf=0.92 status=variable vmaxpu=1.5 vminpu=0.92 daily="RU8_DU" 
New "Load.BT_2805314_6756_M2" bus1="UC2805314.1.2.4" phases=1 conn=Delta model=3 kv=0.44 kw = 0.2064503 pf=0.92 status=variable vmaxpu=1.5 vminpu=0.92 daily="RU8_DU"
 
New "Load.BT_2805247_6760_M1" bus1="UC2805247.1.4" phases=1 conn=Delta model=2 kv=0.22 kw = 0.2388357 pf=0.92 status=variable vmaxpu=1.5 vminpu=0.92 daily="RU4_DU" 
New "Load.BT_2805247_6760_M2" bus1="UC2805247.1.4" phases=1 conn=Delta model=3 kv=0.22 kw = 0.2388357 pf=0.92 status=variable vmaxpu=1.5 vminpu=0.92 daily="RU4_DU"
 
New "Load.BT_2805248_6761_M1" bus1="UC2805248.2.4" phases=1 conn=Delta model=2 kv=0.22 kw = 0.1674677 pf=0.92 status=variable vmaxpu=1.5 vminpu=0.92 daily="RU6_DU" 
New "Load.BT_2805248_6761_M2" bus1="UC2805248.2.4" phases=1 conn=Delta model=3 kv=0.22 kw = 0.1674677 pf=0.92 status=variable vmaxpu=1.5 vminpu=0.92 daily="RU6_DU"
 
New "Load.BT_2805249_6762_M1" bus1="UC2805249.2.4" phases=1 conn=Delta model=2 kv=0.22 kw = 0.3136253 pf=0.92 status=variable vmaxpu=1.5 vminpu=0.92 daily="RU1_DU" 
New "Load.BT_2805249_6762_M2" bus1="UC2805249.2.4" phases=1 conn=Delta model=3 kv=0.22 kw = 0.3136253 pf=0.92 status=variable vmaxpu=1.5 vminpu=0.92 daily="RU1_DU"
 
New "Load.BT_2805353_6783_M1" bus1="UC2805353.1.4" phases=1 conn=Delta model=2 kv=0.22 kw = 0.2133629 pf=0.92 status=variable vmaxpu=1.5 vminpu=0.92 daily="RU2_DU" 
New "Load.BT_2805353_6783_M2" bus1="UC2805353.1.4" phases=1 conn=Delta model=3 kv=0.22 kw = 0.2133629 pf=0.92 status=variable vmaxpu=1.5 vminpu=0.92 daily="RU2_DU"
...